ckt7_Mon_rfi_06_der000.csv
fault_bus,fault_type,fault_R_ohm,Va_mag_pu,Va_ang_deg,Vb_mag_pu,Vb_ang_deg,Vc_mag_pu,Vc_ang_deg,Ia_mag_A,Ia_ang_deg,Ib_mag_A,Ib_ang_deg,Ic_mag_A,Ic_ang_deg
318412,SLG,0,0.129189,-114.0001,1.044302,-150.7001,1.043308,89.1426,92.0946,-79.5997,232.0972,-138.3389,234.3125,71.2859
318412,SLG,10,1.041268,-30.8567,1.043523,-150.6725,1.040748,89.2894,280.3883,-48.7386,243.6259,-167.1184,276.0707,71.5315
318412,SLG,20,1.041273,-30.8339,1.043525,-150.6724,1.040747,89.2894,280.3736,-48.7264,243.6309,-167.1114,276.0793,71.5362
318412,SLG,30,1.041275,-30.8263,1.043526,-150.6724,1.040746,89.2894,280.3688,-48.7223,243.6326,-167.109,276.0822,71.5377
318412,SLG,40,1.041276,-30.8225,1.043526,-150.6724,1.040746,89.2894,280.3663,-48.7202,243.6334,-167.1079,276.0836,71.5385
318412,LL,0,0.126965,-112.9544,0.131359,126.3132,1.042591,89.1329,109.5151,-115.9912,54.9881,-140.3911,216.3768,86.2554
318412,LL,10,1.04127,-30.8567,1.043511,-150.7181,1.040744,89.2894,280.3718,-48.7477,243.6577,-167.1399,276.0617,71.5192
318412,LL,20,1.041275,-30.8339,1.043519,-150.6952,1.040745,89.2894,280.3653,-48.7309,243.6468,-167.1221,276.0748,71.53
318412,LL,30,1.041276,-30.8263,1.043522,-150.6876,1.040745,89.2894,280.3632,-48.7253,243.6432,-167.1162,276.0792,71.5336
318412,LL,40,1.041277,-30.8225,1.043523,-150.6838,1.040745,89.2894,280.3622,-48.7225,243.6413,-167.1132,276.0814,71.5354
318412,3LG,0,0.129818,-112.8068,0.130109,127.3328,0.129754,7.301,34.0135,-119.2862,29.6628,124.1224,33.3672,0.9896
318412,3LG,10,1.041265,-30.8568,1.043514,-150.718,1.040732,89.2437,280.3633,-48.76,243.6397,-167.1503,276.0922,71.4949
318412,3LG,20,1.041272,-30.8339,1.043521,-150.6952,1.040739,89.2665,280.3611,-48.7371,243.6378,-167.1273,276.0901,71.5179
318412,3LG,30,1.041275,-30.8263,1.043523,-150.6876,1.040741,89.2741,280.3604,-48.7294,243.6371,-167.1197,276.0893,71.5255
318412,3LG,40,1.041276,-30.8225,1.043524,-150.6838,1.040742,89.2779,280.3601,-48.7256,243.6368,-167.1158,276.089,71.5293
243937,SLG,0,0.008099,-49.3537,1.330938,174.348,1.731597,103.2935,181.4201,-72.2561,286.5499,-161.4338,288.4556,94.0047
243937,SLG,10,1.034772,-30.9628,1.045803,-150.9256,1.043649,89.5253,281.3307,-48.8945,243.6591,-167.1834,275.6266,71.6222
243937,SLG,20,1.038016,-30.8872,1.044669,-150.7995,1.042197,89.4079,280.8449,-48.8046,243.6473,-167.144,275.857,71.5817
243937,SLG,30,1.039102,-30.8619,1.044289,-150.7572,1.041713,89.3685,280.6829,-48.7745,243.6434,-167.1308,275.9339,71.5681
243937,SLG,40,1.039645,-30.8492,1.044099,-150.736,1.041471,89.3488,280.6019,-48.7594,243.6415,-167.1242,275.9724,71.5613
243937,LL,0,0.028102,-64.3376,0.027834,112.9372,1.484166,84.4506,126.3866,-121.7687,116.2451,-127.3159,341.605,81.0883
243937,LL,10,1.03767,-30.7273,1.039319,-151.0761,1.045877,89.2726,280.8636,-48.8108,244.3877,-167.3637,275.5635,71.5248
243937,LL,20,1.039463,-30.7688,1.041415,-150.8749,1.043325,89.2811,280.6118,-48.7626,244.0128,-167.2343,275.8232,71.533
243937,LL,30,1.040066,-30.7828,1.042118,-150.8075,1.042469,89.2839,280.5276,-48.7465,243.8874,-167.1911,275.9109,71.5356
243937,LL,40,1.040368,-30.7899,1.042469,-150.7738,1.042039,89.2852,280.4855,-48.7384,243.8246,-167.1694,275.955,71.5369
243937,3LG,0,0.032306,-95.7351,0.032363,144.4051,0.032282,24.3568,8.4632,-102.2151,7.379,141.1855,8.3021,18.0539
243937,3LG,10,1.039927,-30.9797,1.042171,-150.8406,1.039389,89.1207,280.7847,-48.9108,244.0088,-167.3055,276.5105,71.3437
243937,3LG,20,1.040604,-30.8955,1.04285,-150.7566,1.040068,89.205,280.5715,-48.8125,243.822,-167.205,276.2988,71.4422
243937,3LG,30,1.040829,-30.8674,1.043076,-150.7285,1.040294,89.2331,280.5006,-48.7797,243.7599,-167.1714,276.2285,71.4751
243937,3LG,40,1.040942,-30.8533,1.043189,-150.7145,1.040407,89.2471,280.4651,-48.7633,243.7289,-167.1547,276.1933,71.4915
157347,SLG,0,0.414076,-24.0299,1.095867,-168.7789,1.348584,96.324,216.6469,-52.5993,266.5612,-158.394,284.7792,87.2288
157347,SLG,10,1.032919,-31.29,1.04844,-150.8963,1.041886,89.6369,281.8242,-49.0699,243.4298,-167.1957,275.7605,71.595
157347,SLG,20,1.037097,-31.0527,1.046012,-150.7843,1.041291,89.4645,281.0905,-48.8929,243.5287,-167.1499,275.9254,71.5678
157347,SLG,30,1.038491,-30.9726,1.04519,-150.747,1.041104,89.4064,280.8464,-48.8335,243.5635,-167.1347,275.9799,71.5587
157347,SLG,40,1.039188,-30.9325,1.044776,-150.7283,1.041012,89.3772,280.7244,-48.8037,243.5813,-167.1271,276.007,71.5542
157347,LL,0,0.50887,-33.1514,0.347128,-161.5953,1.259849,84.429,163.0005,-69.865,155.8595,-149.3923,318.799,80.6521
157347,LL,10,1.034088,-30.9406,1.040065,-151.3731,1.04675,89.4102,281.4974,-49.0102,244.6023,-167.5295,275.3821,71.4902
157347,LL,20,1.037643,-30.8772,1.041829,-151.025,1.043765,89.3521,280.9299,-48.8636,244.1167,-167.3173,275.7292,71.5162
157347,LL,30,1.038846,-30.8555,1.042402,-150.908,1.042762,89.3317,280.74,-48.8141,243.9558,-167.2464,275.8475,71.5246
157347,LL,40,1.039451,-30.8445,1.042686,-150.8493,1.042259,89.3213,280.6449,-48.7892,243.8756,-167.2109,275.9071,71.5287
157347,3LG,0,0.447016,-42.648,0.447822,-162.5156,0.446716,77.4426,117.1064,-49.1305,102.109,-165.7326,114.8794,71.1398
157347,3LG,10,1.038941,-31.1661,1.041187,-151.0274,1.038411,88.9341,281.0948,-49.1179,244.2802,-167.5158,276.8171,71.1364
157347,3LG,20,1.040118,-30.9892,1.042365,-150.8505,1.039586,89.1112,280.7239,-48.9164,243.9554,-167.3105,276.4495,71.3382
157347,3LG,30,1.040507,-30.93,1.042755,-150.7912,1.039975,89.1704,280.6016,-48.8491,243.8483,-167.2418,276.3283,71.4057
157347,3LG,40,1.040701,-30.9003,1.042948,-150.7616,1.040168,89.2001,280.5407,-48.8154,243.795,-167.2075,276.268,71.4394
298162,SLG,0,0.002492,-152.5099,1.230049,-171.4618,1.401519,101.9253,148.4809,-68.7428,273.9186,-151.7388,260.987,87.4612
298162,SLG,10,1.025328,-32.2554,1.055863,-150.8944,1.038233,89.9933,283.6184,-49.6335,242.8963,-167.2778,276.0153,71.5351
298162,SLG,20,1.033325,-31.5387,1.049767,-150.7806,1.039379,89.6427,281.9805,-49.1754,243.2499,-167.1899,276.0599,71.5357
298162,SLG,30,1.035982,-31.2974,1.047703,-150.7439,1.039809,89.5252,281.4381,-49.0219,243.3749,-167.1611,276.0711,71.5369
298162,SLG,40,1.037308,-31.1763,1.046665,-150.7258,1.040034,89.4663,281.1676,-48.9451,243.4388,-167.1468,276.076,71.5377
298162,LL,0,0.003606,-66.7404,0.006569,106.2765,1.354055,86.4692,107.0242,-122.1089,105.1212,-123.1735,304.0505,83.7685
298162,LL,10,1.022788,-31.5435,1.039775,-152.3296,1.050534,89.7576,283.5879,-49.6261,245.6226,-168.1123,274.8417,71.3553
298162,LL,20,1.031931,-31.1836,1.041783,-151.5058,1.045622,89.5318,281.9731,-49.1752,244.614,-167.6089,275.4562,71.4507
298162,LL,30,1.035024,-31.0608,1.042395,-151.2291,1.043991,89.4529,281.4346,-49.0226,244.2844,-167.4408,275.6646,71.4813
298162,LL,40,1.03658,-30.999,1.042689,-151.0903,1.043178,89.4127,281.165,-48.9458,244.1215,-167.3566,275.7697,71.4963
298162,3LG,0,0.005865,-101.2705,0.00587,138.8064,0.005862,18.7778,1.5361,-107.7747,1.339,135.5887,1.5071,12.4962
298162,3LG,10,1.034938,-31.7705,1.037208,-151.6344,1.03446,88.3294,282.3579,-49.8059,245.3856,-168.2172,278.0638,70.448
298162,3LG,20,1.038135,-31.2922,1.040395,-151.1548,1.03763,88.808,281.3463,-49.2609,244.5,-167.6616,277.0637,70.9935
298162,3LG,30,1.039189,-31.1322,1.041446,-150.9943,1.038675,88.9681,281.0145,-49.0789,244.2096,-167.476,276.7357,71.1757
298162,3LG,40,1.039714,-31.052,1.041968,-150.914,1.039195,89.0483,280.8496,-48.9878,244.0653,-167.3832,276.5728,71.2669
165448,SLG,0,0.00236,-151.0165,1.234792,-171.0951,1.393937,102.1387,147.9936,-68.0936,274.6792,-151.5478,259.2979,87.5382
165448,SLG,10,1.024499,-32.3805,1.056836,-150.8863,1.037629,90.0362,283.831,-49.7034,242.8215,-167.2851,276.0667,71.5256
165448,SLG,20,1.032919,-31.6021,1.050261,-150.7759,1.039059,89.664,282.0851,-49.2104,243.21,-167.1933,276.0869,71.5305
165448,SLG,30,1.035713,-31.3398,1.048034,-150.7406,1.039592,89.5394,281.5075,-49.0454,243.3478,-167.1633,276.0893,71.5333
165448,SLG,40,1.037107,-31.2082,1.046914,-150.7232,1.03987,89.477,281.2195,-48.9627,243.4182,-167.1485,276.0898,71.5349
165448,LL,0,0.003365,-67.4874,0.006077,106.5826,1.352401,86.6534,106.7801,-121.9557,105.0206,-122.9456,303.6038,83.9597
165448,LL,10,1.021349,-31.6244,1.039888,-152.4455,1.050916,89.8066,283.8579,-49.7046,245.7357,-168.1807,274.7822,71.3396
165448,LL,20,1.031201,-31.2253,1.041864,-151.5642,1.045801,89.5575,282.1074,-49.2151,244.6674,-167.6431,275.4257,71.4431
165448,LL,30,1.034536,-31.0889,1.042454,-151.2681,1.044108,89.4703,281.5239,-49.0494,244.3194,-167.4636,275.6442,71.4763
165448,LL,40,1.036212,-31.0201,1.042736,-151.1196,1.043264,89.4259,281.2319,-48.966,244.1474,-167.3737,275.7544,71.4926
165448,3LG,0,0.005445,-101.3239,0.005449,138.7466,0.005442,18.7204,1.4261,-107.8305,1.2431,135.5294,1.3992,12.4408
165448,3LG,10,1.034448,-31.8442,1.036725,-151.7087,1.033981,88.2556,282.5126,-49.8899,245.5208,-168.3028,278.216,70.364
165448,3LG,20,1.037895,-31.3293,1.040158,-151.1922,1.037395,88.7709,281.4217,-49.3031,244.5659,-167.7045,277.1379,70.9514
165448,3LG,30,1.03903,-31.1569,1.041289,-151.0193,1.038519,88.9434,281.0644,-49.107,244.2531,-167.5047,276.7847,71.1476
165448,3LG,40,1.039595,-31.0706,1.041851,-150.9327,1.039079,89.0297,280.8868,-49.0089,244.0978,-167.4047,276.6094,71.2458
165449,SLG,0,0.001889,-96.0424,1.269584,-169.7383,1.36641,103.6539,13726.8781,-95.7188,280.19,-150.965,252.0607,88.4067
165449,SLG,10,1.01652,-33.6315,1.067084,-150.8175,1.031571,90.4992,1008.9581,-38.318,242.0908,-167.3482,276.5326,71.4489
165449,SLG,20,1.029069,-32.2382,1.055485,-150.7306,1.03577,89.8926,646.2108,-39.7308,242.7769,-167.2196,276.3393,71.4847
165449,SLG,30,1.033179,-31.7662,1.051537,-150.7078,1.037341,89.6909,523.9646,-41.0905,243.0513,-167.18,276.2616,71.5011
165449,SLG,40,1.03522,-31.5288,1.049549,-150.6977,1.038159,89.5903,462.7568,-42.1399,243.1929,-167.1607,276.2205,71.5101
165449,LL,0,0.002975,-85.4152,0.002763,121.0794,1.351809,87.635,21504.988,-85.5809,19843.208,121.3505,303.7525,84.9057
165449,LL,10,1.007205,-32.3943,1.04172,-153.6147,1.055317,90.3079,1001.4245,-37.4838,990.1983,-157.3666,274.038,71.2061
165449,LL,20,1.024005,-31.6284,1.043137,-152.153,1.047815,89.825,644.1415,-39.4312,614.9913,-158.3901,275.0487,71.3792
165449,LL,30,1.029714,-31.3619,1.043385,-151.6614,1.045404,89.6523,523.0379,-40.9383,490.1833,-159.5772,275.3928,71.4342
165449,LL,40,1.032587,-31.2264,1.043465,-151.4149,1.044218,89.5638,462.2478,-42.0498,427.98,-160.5376,275.5658,71.4613
165449,3LG,0,0.003225,-102.6665,0.003225,137.3318,0.003225,17.334,23217.0149,-102.6668,23216.3233,137.3317,23216.7724,17.3338
165449,3LG,10,1.030242,-32.5595,1.032621,-152.4324,1.029937,87.5408,1015.3211,-37.551,982.2881,-156.5678,1011.0607,82.6456
165449,3LG,20,1.035852,-31.6899,1.038172,-151.557,1.035436,88.4108,647.021,-39.4388,612.6711,-158.1039,642.7764,80.7941
165449,3LG,30,1.037682,-31.398,1.03998,-151.2631,1.037228,88.7027,524.0205,-40.9416,489.0746,-159.4373,519.7798,79.3079
165449,3LG,40,1.038589,-31.2516,1.040875,-151.1158,1.038115,88.849,462.63,-42.0538,427.3292,-160.4598,458.3881,78.2041
287274,SLG,0,0.303379,-40.4724,1.210516,-164.531,1.254261,101.0314,9874.3559,-91.5535,279.3702,-150.9031,250.8603,88.0346
287274,SLG,10,1.015781,-33.5574,1.066628,-150.8424,1.032165,90.4891,998.8498,-39.2885,242.4013,-167.4095,277.0467,71.4249
287274,SLG,20,1.028803,-32.2172,1.055374,-150.7383,1.035945,89.8908,643.8269,-40.239,242.652,-167.2373,276.6175,71.4658
287274,SLG,30,1.033029,-31.7557,1.051485,-150.712,1.03743,89.6903,522.9684,-41.4326,242.9595,-167.1914,276.4512,71.4868
287274,SLG,40,1.035118,-31.5223,1.049518,-150.7004,1.038215,89.59,462.2308,-42.3967,243.121,-167.169,276.3643,71.4987
287274,LL,0,0.364764,-43.7811,0.291563,-172.8238,1.26712,88.2462,14796.8757,-77.1128,14467.5503,131.0065,303.9872,85.0832
287274,LL,10,1.009406,-32.3529,1.042795,-153.6468,1.058374,90.2368,986.083,-35.0921,983.9438,-154.9899,259.5945,83.3475
287274,LL,20,1.023977,-31.6056,1.042739,-152.1456,1.047913,89.8147,641.0692,-39.861,613.8044,-158.8448,275.0694,71.3457
287274,LL,30,1.029674,-31.3503,1.04318,-151.6582,1.045461,89.6475,521.7699,-41.2431,489.6992,-159.8801,275.4064,71.4122
287274,LL,40,1.03255,-31.2192,1.043334,-151.413,1.044257,89.5609,461.5961,-42.2858,427.726,-160.7639,275.5758,71.4448
287274,3LG,0,0.342578,-51.3438,0.342566,-171.35,0.342594,68.6553,16389.5041,-93.2117,16388.3619,146.7865,16389.257,26.7887
287274,3LG,10,1.029835,-32.527,1.032275,-152.4045,1.029609,87.5734,1006.9247,-38.2613,974.1056,-157.2463,1002.5033,81.9556
287274,3LG,20,1.035688,-31.68,1.038043,-151.5494,1.035314,88.4209,644.9925,-39.8428,610.7218,-158.4842,640.6334,80.4047
287274,3LG,30,1.037582,-31.3928,1.039905,-151.2595,1.037156,88.7081,523.1632,-41.2285,488.2587,-159.7057,518.836,79.0324
287274,3LG,40,1.038518,-31.2483,1.040823,-151.1136,1.038066,88.8525,462.1758,-42.2772,426.9009,-160.6681,457.8648,77.99
283954,SLG,0,0.420161,-34.4995,1.174024,-162.7778,1.221946,99.1695,8286.5724,-92.6883,280.8924,-151.2726,251.6042,88.4392
283954,SLG,10,1.01505,-33.5147,1.0664,-150.8636,1.032602,90.4887,995.2174,-40.0503,242.6995,-167.4494,277.2588,71.4165
283954,SLG,20,1.028548,-32.2054,1.055332,-150.7447,1.036071,89.8918,643.1862,-40.6312,242.4462,-167.2405,276.7434,71.4549
283954,SLG,30,1.032888,-31.7498,1.051468,-150.7153,1.037494,89.6911,522.7874,-41.6944,242.8149,-167.1925,276.5409,71.4776
283954,SLG,40,1.035023,-31.5186,1.04951,-150.7026,1.038256,89.5906,462.1853,-42.5922,243.0096,-167.1696,276.4332,71.4912
283954,LL,0,0.470675,-38.0809,0.396394,-161.9415,1.229807,88.1161,12465.5991,-77.8939,12222.8106,130.0494,305.6269,85.0774
283954,LL,10,1.009272,-32.3007,1.041731,-153.6441,1.058728,90.2147,980.2102,-35.6617,984.4097,-155.6965,258.8606,83.372
283954,LL,20,1.023897,-31.5899,1.042429,-152.1449,1.048029,89.8088,639.7466,-40.1844,614.0648,-159.1831,274.8563,71.3332
283954,LL,30,1.029613,-31.3423,1.043022,-151.6582,1.045527,89.6449,521.2872,-41.4714,489.8801,-160.1005,275.26,71.4038
283954,LL,40,1.032502,-31.2141,1.043235,-151.4132,1.044302,89.5595,461.3916,-42.4628,427.8557,-160.9262,275.4695,71.439
283954,3LG,0,0.442197,-42.621,0.442175,-162.6318,0.442244,77.3772,13831.642,-94.0602,13830.6049,145.938,13831.239,25.9398
283954,3LG,10,1.029462,-32.5112,1.031962,-152.3928,1.029308,87.5898,1004.4046,-38.7948,971.8002,-157.7514,999.7796,81.4366
283954,3LG,20,1.035546,-31.6749,1.037937,-151.5463,1.03521,88.4266,644.4403,-40.1393,610.2432,-158.7574,639.9445,80.1183
283954,3LG,30,1.037498,-31.39,1.039845,-151.258,1.037098,88.7113,522.9556,-41.4374,488.0883,-159.8954,518.5281,78.8312
283954,3LG,40,1.038459,-31.2464,1.040783,-151.1127,1.038026,88.8547,462.0818,-42.4393,426.8292,-160.8141,457.6919,77.8341
283956,SLG,0,0.518912,-41.078,1.177445,-160.4485,1.174239,98.9656,7223.5712,-85.2738,272.8541,-151.6278,254.9875,86.8903
283956,SLG,10,1.015307,-33.4607,1.065985,-150.8648,1.03282,90.469,982.7875,-40.251,242.7056,-167.4451,277.2737,71.4191
283956,SLG,20,1.028602,-32.191,1.055221,-150.7455,1.036137,89.8869,639.982,-40.7385,242.4779,-167.2416,276.7553,71.4554
283956,SLG,30,1.03291,-31.7433,1.051418,-150.7158,1.037525,89.6889,521.3556,-41.7614,242.833,-167.1935,276.5502,71.4776
283956,SLG,40,1.035035,-31.5149,1.04948,-150.7028,1.038274,89.5894,461.3784,-42.6382,243.0219,-167.1704,276.4407,71.491
283956,LL,0,0.583709,-41.7403,0.518443,-168.1729,1.207379,89.1472,10495.0852,-69.6238,10476.5629,139.4638,299.9054,84.5501
283956,LL,10,1.010003,-32.2741,1.04139,-153.5895,1.058448,90.1899,969.1567,-35.6258,973.4026,-156.0031,259.0363,83.3585
283956,LL,20,1.024087,-31.5818,1.042318,-152.1312,1.047968,89.8017,636.7541,-40.2076,611.5064,-159.3491,274.9087,71.3306
283956,LL,30,1.029699,-31.3385,1.042968,-151.652,1.045502,89.6416,519.9203,-41.4911,488.7696,-160.2007,275.2911,71.4019
283956,LL,40,1.03255,-31.2119,1.043204,-151.4097,1.044288,89.5576,460.6121,-42.4785,427.2411,-160.9938,275.4913,71.4375
283956,3LG,0,0.568254,-46.6671,0.568437,-166.681,0.568387,73.339,11720.1168,-85.0892,11717.2957,154.918,11719.5853,34.9128
283956,3LG,10,1.029514,-32.4875,1.032007,-152.3686,1.029349,87.6134,995.3031,-38.9579,962.5987,-157.9161,990.7018,81.2714
283956,3LG,20,1.035555,-31.6688,1.037944,-151.54,1.035217,88.4327,642.1439,-40.2208,607.916,-158.841,637.6566,80.0359
283956,3LG,30,1.037502,-31.3873,1.039848,-151.2552,1.0371,88.714,521.9388,-41.4875,487.0562,-159.9475,517.5156,78.7805
283956,3LG,40,1.038461,-31.2449,1.040784,-151.1111,1.038027,88.8563,461.5127,-42.4737,426.2508,-160.8501,457.1252,77.7993
189963,SLG,0,0.627969,-36.4543,1.142865,-158.751,1.148331,96.9393,5673.3645,-86.129,283.8042,-150.2148,239.2847,88.9121
189963,SLG,10,1.015656,-33.4151,1.068281,-150.9707,1.036333,90.4467,970.2984,-38.8339,234.2906,-153.2944,263.688,82.9475
189963,SLG,20,1.028112,-32.1599,1.055058,-150.7592,1.036414,89.8843,637.4513,-41.6121,242.4712,-167.266,277.6353,71.4519
189963,SLG,30,1.032618,-31.7268,1.051338,-150.7235,1.037674,89.6879,520.3526,-42.3797,242.7782,-167.2078,277.1532,71.4706
189963,SLG,40,1.034831,-31.5041,1.049431,-150.7081,1.038371,89.5888,460.8879,-43.1184,242.9719,-167.1806,276.8995,71.4839
189963,LL,0,0.702959,-37.1699,0.625219,-163.0075,1.173678,88.8117,7881.6519,-68.3197,8169.8741,141.8987,297.9822,86.2948
189963,LL,10,1.009649,-32.1599,1.039281,-153.5609,1.059021,90.1378,955.1329,-37.1349,968.0872,-157.523,259.6485,83.3228
189963,LL,20,1.025963,-31.5811,1.043983,-152.1848,1.050949,89.7523,628.681,-36.2086,607.6226,-154.9057,261.2121,83.406
189963,LL,30,1.029561,-31.3201,1.042618,-151.6481,1.045609,89.6337,518.7616,-42.0901,488.2642,-160.7374,275.6233,71.3858
189963,LL,40,1.03244,-31.1999,1.042969,-151.4074,1.044362,89.5526,460.1286,-42.9512,426.9966,-161.4139,275.7395,71.4252
189963,3LG,0,0.682929,-41.791,0.683013,-161.8062,0.683246,78.2137,8947.8098,-82.9381,8944.9446,157.0582,8944.2465,37.063
189963,3LG,10,1.030914,-32.4911,1.033595,-152.3802,1.030903,87.615,983.9193,-37.1662,952.4891,-155.9438,978.669,83.0828
189963,3LG,20,1.03522,-31.6546,1.037695,-151.5293,1.034952,88.4493,640.0184,-40.9706,605.7933,-159.5499,635.1115,79.2878
189963,3LG,30,1.037289,-31.3797,1.039696,-151.2499,1.036935,88.7234,521.1998,-42.042,486.2908,-160.4718,516.4837,78.2244
189963,3LG,40,1.038306,-31.24,1.040676,-151.1079,1.037908,88.8626,461.2264,-42.9164,425.93,-161.2695,456.6134,77.3538
181977,SLG,0,0.690151,-35.6052,1.128943,-157.5982,1.130018,95.9618,4860.6302,-84.9853,279.3439,-150.4013,241.0405,88.1656
181977,SLG,10,1.015218,-33.3516,1.067895,-150.9887,1.036802,90.4372,960.3043,-39.5538,234.433,-153.2763,263.4979,82.9071
181977,SLG,20,1.027952,-32.1423,1.054955,-150.7649,1.036552,89.8824,635.1588,-41.9759,242.4564,-167.2743,277.6618,71.4332
181977,SLG,30,1.032528,-31.7186,1.051294,-150.7264,1.03774,89.6873,519.4185,-42.6102,242.7463,-167.2127,277.1767,71.456
181977,SLG,40,1.034771,-31.4993,1.049407,-150.7099,1.038411,89.5887,460.4076,-43.2825,242.9437,-167.1843,276.9194,71.472
181977,LL,0,0.762108,-36.1281,0.688099,-161.2177,1.154723,88.8779,6635.1358,-66.3887,6976.6483,144.2531,296.8056,85.6758
181977,LL,10,1.010038,-32.1,1.038283,-153.5248,1.059102,90.104,942.7267,-37.5867,961.9508,-158.2268,259.594,83.2817
181977,LL,20,1.025999,-31.5624,1.043664,-152.1784,1.051025,89.7436,625.4555,-36.4764,606.4899,-155.2466,261.0142,83.3924
181977,LL,30,1.029572,-31.3109,1.042466,-151.6448,1.045644,89.6296,517.3774,-42.278,487.8458,-160.9508,275.5729,71.3661
181977,LL,40,1.032438,-31.1944,1.042876,-151.4057,1.044386,89.5503,459.383,-43.0914,426.8041,-161.5644,275.7004,71.4101
181977,3LG,0,0.743,-40.1832,0.743232,-160.1958,0.743434,79.8295,7581.787,-80.6827,7577.1658,159.3132,7576.7007,39.3181
181977,3LG,10,1.03071,-32.4636,1.033396,-152.3542,1.030718,87.6419,975.6028,-37.645,944.1894,-156.4187,970.3567,82.6109
181977,3LG,20,1.035138,-31.6466,1.037623,-151.5221,1.034885,88.4573,637.982,-41.2318,603.7601,-159.8081,633.0364,79.0314
181977,3LG,30,1.03724,-31.3759,1.039655,-151.2466,1.036897,88.7273,520.3372,-42.2164,485.4214,-160.6436,515.5806,78.0542
181977,3LG,40,1.038271,-31.2376,1.040649,-151.1059,1.037882,88.865,460.7635,-43.0458,425.4658,-161.3964,456.1197,77.2272
181924,SLG,0,0.698592,-33.306,1.116743,-157.6889,1.135215,95.3953,4667.4386,-88.8948,282.7404,-150.3319,239.4949,88.8206
181924,SLG,10,1.014324,-33.3437,1.067963,-151.0098,1.0371,90.4519,964.5056,-40.1975,234.6437,-153.2685,263.1156,82.8428
181924,SLG,20,1.02766,-32.1408,1.054988,-150.7714,1.036635,89.8877,636.9165,-42.2773,242.4807,-167.2771,277.5929,71.3929
181924,SLG,30,1.032368,-31.7183,1.051325,-150.7295,1.037777,89.6905,520.431,-42.8078,242.5816,-167.2055,277.1357,71.4265
181924,SLG,40,1.034665,-31.4992,1.049429,-150.7119,1.038434,89.5909,461.0975,-43.4283,242.8155,-167.1784,276.8902,71.4489
181924,LL,0,0.752709,-34.8544,0.683191,-157.6873,1.148648,88.5796,6678.0776,-71.2693,6838.856,138.0253,298.7248,85.9278
181924,LL,10,1.009723,-32.0735,1.037322,-153.5425,1.05945,90.092,944.8176,-38.0192,969.2181,-158.8825,259.2161,83.2201
181924,LL,20,1.025831,-31.5533,1.043369,-152.1865,1.051174,89.742,626.3402,-36.7418,608.8271,-155.5734,260.5636,83.3795
181924,LL,30,1.029476,-31.3063,1.042321,-151.6487,1.045719,89.6291,517.9981,-42.4531,489.072,-161.1452,275.3342,71.3402
181924,LL,40,1.03237,-31.1914,1.042784,-151.4082,1.044436,89.5501,459.8345,-43.2281,427.5724,-161.7083,275.5204,71.3907
181924,3LG,0,0.728054,-37.7752,0.728238,-157.7842,0.728442,82.2389,7551.9741,-86.4449,7547.912,153.5411,7547.0493,33.5471
181924,3LG,10,1.03029,-32.4684,1.032976,-152.3593,1.030301,87.637,980.9975,-38.1017,949.4871,-156.8957,975.7301,82.1508
181924,3LG,20,1.034999,-31.6475,1.037487,-151.5231,1.034749,88.4565,639.6842,-41.4615,605.414,-160.0519,634.7115,78.799
181924,3LG,30,1.037162,-31.3761,1.03958,-151.2469,1.036821,88.7272,521.2145,-42.3772,486.2636,-160.816,516.436,77.891
181924,3LG,40,1.038218,-31.2376,1.040598,-151.106,1.03783,88.8651,461.322,-43.1707,425.9967,-161.5313,456.6604,77.1002
181993,SLG,0,0.723447,-32.5517,1.108635,-157.2836,1.130122,94.8863,4328.4571,-89.7418,281.79,-150.6191,240.6655,88.735
181993,SLG,10,1.013847,-33.3145,1.067829,-151.0244,1.0374,90.4529,961.8391,-40.7125,234.7698,-153.2333,262.8679,82.821
181993,SLG,20,1.027487,-32.1344,1.054973,-150.7763,1.036717,89.8895,636.8479,-42.517,242.4813,-167.2567,277.5083,71.3667
181993,SLG,30,1.032275,-31.7159,1.051329,-150.7319,1.037813,89.6919,520.5772,-42.9524,242.5188,-167.1891,277.0832,71.4071
181993,SLG,40,1.034604,-31.498,1.049436,-150.7134,1.038454,89.592,461.2712,-43.5273,242.7645,-167.166,276.8522,71.4335
181993,LL,0,0.770619,-34.163,0.706166,-156.263,1.140328,88.5336,6249.7459,-72.3385,6365.2468,136.7165,298.985,85.7503
181993,LL,10,1.009844,-32.0406,1.036549,-153.5318,1.059587,90.0722,940.4444,-38.3105,969.43,-159.42,259.1209,83.2145
181993,LL,20,1.025816,-31.543,1.043134,-152.1863,1.05125,89.7372,625.3074,-36.9068,609.3049,-155.8217,260.3946,83.3805
181993,LL,30,1.029452,-31.3014,1.042208,-151.6494,1.045762,89.6273,517.7409,-42.5666,489.5536,-161.287,275.2155,71.3334
181993,LL,40,1.032348,-31.1885,1.042717,-151.409,1.044466,89.5493,459.7563,-43.3106,427.9231,-161.8049,275.4279,71.3847
181993,3LG,0,0.746116,-36.5943,0.746344,-156.597,0.746505,83.4241,7052.3727,-87.6691,7047.6032,152.308,7047.0018,32.3182
181993,3LG,10,1.030081,-32.4604,1.03275,-152.3506,1.030075,87.6447,979.9368,-38.4339,948.2602,-157.2482,974.7152,81.813
181993,3LG,20,1.03493,-31.6457,1.037412,-151.5211,1.034673,88.4582,639.772,-41.6182,605.4469,-160.2238,634.8139,78.6389
181993,3LG,30,1.037125,-31.3754,1.03954,-151.246,1.03678,88.7279,521.3603,-42.475,486.3771,-160.9258,516.5888,77.7906
181993,3LG,40,1.038194,-31.2373,1.040572,-151.1055,1.037804,88.8655,461.4612,-43.2399,426.1137,-161.6105,456.8038,77.0287
181994,SLG,0,0.749019,-32.1207,1.101746,-156.8172,1.123741,94.4117,3990.755,-90.0699,278.9884,-151.2332,244.0567,88.4484
181994,SLG,10,1.013504,-33.2762,1.067593,-151.037,1.037717,90.4476,956.7851,-41.2139,234.9154,-153.2547,262.895,82.8519
181994,SLG,20,1.027368,-32.1246,1.054916,-150.7803,1.036807,89.8888,635.8755,-42.7489,242.5381,-167.2622,277.5234,71.3726
181994,SLG,30,1.032216,-31.7115,1.051305,-150.7337,1.037855,89.6917,520.1857,-43.0884,242.5193,-167.1914,277.0962,71.4097
181994,SLG,40,1.034569,-31.4955,1.049422,-150.7145,1.038478,89.5918,461.0651,-43.6178,242.7621,-167.1677,276.8631,71.4349
181994,LL,0,0.791912,-33.5708,0.73279,-155.3639,1.132325,88.5323,5754.7994,-72.9154,5844.1063,136.2724,299.4107,85.2912
181994,LL,10,1.010101,-32.0065,1.035816,-153.5093,1.059632,90.049,934.2622,-38.5837,966.9866,-159.9621,259.365,83.2075
181994,LL,20,1.025864,-31.5323,1.04291,-152.1817,1.051287,89.7307,623.5594,-37.047,608.8652,-156.0666,260.4332,83.3798
181994,LL,30,1.029468,-31.2963,1.042103,-151.6476,1.045783,89.6243,517.0393,-42.6615,489.5252,-161.4298,275.2285,71.3321
181994,LL,40,1.032356,-31.1855,1.042655,-151.4079,1.044478,89.5476,459.3632,-43.3762,427.9201,-161.9009,275.4363,71.3835
181994,3LG,0,0.769124,-35.7086,0.769432,-155.7029,0.769512,84.3157,6483.1559,-88.1914,6477.203,151.7739,6477.2085,31.7909
181994,3LG,10,1.029907,-32.4478,1.032562,-152.3368,1.02988,87.6574,976.8278,-38.7701,944.9401,-157.604,971.6213,81.4689
181994,3LG,20,1.034877,-31.6425,1.037354,-151.5174,1.034613,88.4615,639.1547,-41.7704,604.7582,-160.3909,634.202,78.4813
181994,3LG,30,1.037099,-31.3739,1.039512,-151.2442,1.03675,88.7294,521.1026,-42.5648,486.078,-161.027,516.3332,77.6964
181994,3LG,40,1.038179,-31.2364,1.040555,-151.1045,1.037785,88.8664,461.3216,-43.3005,425.9459,-161.6802,456.6654,76.9645
181891,SLG,0,0.783118,-32.5475,1.097654,-156.058,1.111351,93.9691,3568.8516,-87.9059,273.4954,-152.2897,249.9863,87.8058
181891,SLG,10,1.013524,-33.2037,1.067039,-151.0462,1.03813,90.4245,942.9549,-41.7386,235.2339,-153.3385,263.2834,82.965
181891,SLG,20,1.027335,-32.1033,1.05475,-150.7842,1.036947,89.8824,632.2474,-43.0378,242.7526,-167.2885,277.6716,71.4244
181891,SLG,30,1.032197,-31.7011,1.051225,-150.7355,1.037924,89.6885,518.4563,-43.2682,242.5774,-167.2053,277.2014,71.4434
181891,SLG,40,1.034559,-31.4893,1.049375,-150.7154,1.038519,89.5898,460.0254,-43.7429,242.7475,-167.1754,276.9445,71.4597
181891,LL,0,0.8288,-33.6446,0.770991,-155.7453,1.122647,88.6815,5023.6238,-69.9559,5180.1839,139.881,299.5833,84.4739
181891,LL,10,1.010828,-31.958,1.035139,-153.4509,1.05946,90.0133,919.9507,-38.8221,955.997,-160.5237,260.0101,83.2347
181891,LL,20,1.02606,-31.5159,1.042667,-152.1662,1.051268,89.7192,619.2577,-37.1828,605.9297,-156.344,260.657,83.402
181891,LL,30,1.029557,-31.2882,1.041982,-151.6403,1.045779,89.6187,515.082,-42.7723,488.3054,-161.6146,275.3405,71.3518
181891,LL,40,1.03241,-31.1807,1.042582,-151.4035,1.044476,89.5441,458.2002,-43.4544,427.1805,-162.0302,275.5205,71.3984
181891,3LG,0,0.808111,-35.8539,0.80863,-155.8383,0.808511,84.1795,5696.8342,-84.7782,5687.9277,155.1815,5690.1769,35.2052
181891,3LG,10,1.029916,-32.4163,1.032522,-152.3044,1.02986,87.6865,965.5811,-39.0818,933.5896,-157.9322,960.7036,81.1642
181891,3LG,20,1.034872,-31.6334,1.037327,-151.5083,1.0346,88.4693,636.1638,-41.9415,601.7688,-160.5758,631.3534,78.3193
181891,3LG,30,1.037098,-31.3694,1.039496,-151.2398,1.036745,88.7331,519.6713,-42.6701,484.6583,-161.1429,514.989,77.5993
181891,3LG,40,1.038179,-31.2337,1.040545,-151.1018,1.037783,88.8685,460.4603,-43.3733,425.0978,-161.7614,455.8658,76.899
255335,SLG,0,0.790638,-32.2061,1.094655,-155.9521,1.110491,93.7876,3460.4164,-88.6082,273.563,-152.0031,248.7874,87.7256
255335,SLG,10,1.013236,-33.1942,1.067033,-151.0537,1.038256,90.4284,942.867,-41.9991,235.1302,-153.2873,262.9655,82.9042
255335,SLG,20,1.029178,-32.1538,1.057546,-150.8419,1.039533,89.8639,627.4446,-38.3191,232.7937,-153.1666,263.3445,83.0512
255335,SLG,30,1.032144,-31.7014,1.051241,-150.7367,1.037933,89.6901,518.8319,-43.3244,242.5478,-167.1955,277.1211,71.4145
255335,SLG,40,1.034525,-31.4897,1.049386,-150.7162,1.038523,89.591,460.322,-43.7765,242.7683,-167.1703,276.8841,71.4375
255335,LL,0,0.832649,-33.1571,0.779985,-155.1266,1.120412,88.6571,4871.6804,-71.4578,4977.3033,138.6388,298.6494,84.6418
255335,LL,10,1.010789,-31.9459,1.034755,-153.4468,1.059532,90.0063,919.5331,-39.0142,956.4989,-160.8366,259.7923,83.1993
255335,LL,20,1.026022,-31.5123,1.042553,-152.1672,1.051305,89.718,619.3133,-37.2771,606.457,-156.4792,260.538,83.3772
255335,LL,30,1.029529,-31.2867,1.04193,-151.6415,1.0458,89.6185,515.2498,-42.8275,488.7543,-161.6834,275.271,71.3304
255335,LL,40,1.032389,-31.1798,1.042552,-151.4045,1.04449,89.5442,458.3496,-43.4917,427.5116,-162.0726,275.4652,71.3818
255335,3LG,0,0.814052,-35.1968,0.814609,-155.1771,0.814468,84.8399,5495.6626,-86.2094,5486.2785,153.7382,5488.4667,33.7683
255335,3LG,10,1.029722,-32.4141,1.032353,-152.301,1.029659,87.6912,966.1948,-39.3334,933.9291,-158.1951,961.0084,80.8932
255335,3LG,20,1.034811,-31.6337,1.037278,-151.5078,1.034533,88.4704,636.7041,-42.0461,602.179,-160.6902,631.7612,78.1969
255335,3LG,30,1.037066,-31.3699,1.039473,-151.2398,1.036709,88.7335,520.0352,-42.7297,484.937,-161.2104,515.27,77.5245
255335,3LG,40,1.038159,-31.2341,1.040532,-151.1018,1.037759,88.8688,460.73,-43.4122,425.3047,-161.8069,456.0762,76.8468
182030,SLG,0,0.800283,-32.3947,1.093985,-155.7278,1.106713,93.6785,3343.3775,-87.6853,272.0271,-152.1347,249.8423,87.4848
182030,SLG,10,1.013285,-33.1712,1.066863,-151.0556,1.038371,90.4211,938.0792,-42.1406,235.1346,-153.2867,262.9646,82.9163
182030,SLG,20,1.029174,-32.1473,1.0575,-150.8429,1.039572,89.8621,626.1588,-38.3924,232.7989,-153.1669,263.3429,83.0554
182030,SLG,30,1.032138,-31.6984,1.05122,-150.7373,1.037952,89.6894,518.3102,-43.3746,242.5532,-167.1952,277.1178,71.4157
182030,SLG,40,1.034521,-31.488,1.049375,-150.7165,1.038534,89.5906,460.0331,-43.8104,242.7721,-167.1702,276.8822,71.4383
182030,LL,0,0.843083,-33.1108,0.792556,-155.3007,1.118038,88.7206,4643.6974,-70.6302,4758.5362,140.0066,298.1981,84.5041
182030,LL,10,1.011003,-31.9328,1.034601,-153.4251,1.059453,89.9967,915.1781,-39.1042,951.9241,-161.0107,259.8455,83.2056
182030,LL,20,1.026078,-31.5078,1.042489,-152.1618,1.051293,89.7148,618.0445,-37.3245,605.3277,-156.5659,260.5597,83.3787
182030,LL,30,1.029552,-31.2844,1.041898,-151.6392,1.045798,89.617,514.6996,-42.8637,488.327,-161.7406,275.276,71.3313
182030,LL,40,1.032402,-31.1785,1.042533,-151.4032,1.044489,89.5433,458.0371,-43.5166,427.2815,-162.111,275.4679,71.3823
182030,3LG,0,0.826502,-35.2034,0.827144,-155.1809,0.826935,84.8366,5240.511,-85.0799,5229.9769,154.8658,5232.936,34.8983
182030,3LG,10,1.029711,-32.4025,1.032337,-152.2891,1.029643,87.7027,962.0879,-39.4639,929.7549,-158.3288,956.9163,80.7618
182030,3LG,20,1.034802,-31.6306,1.037268,-151.5047,1.034523,88.4734,635.7075,-42.1148,601.1627,-160.7622,630.7706,78.1278
182030,3LG,30,1.037061,-31.3685,1.039468,-151.2383,1.036703,88.7349,519.5974,-42.7706,484.4894,-161.2538,514.8351,77.4833
182030,3LG,40,1.038156,-31.2333,1.040528,-151.101,1.037756,88.8695,460.4869,-43.4395,425.0557,-161.8362,455.8348,76.8194
182153,SLG,0,0.85187,-33.0185,1.0889,-154.5691,1.088075,93.0121,2719.4885,-82.6399,264.6294,-152.7921,254.7003,86.4289
182153,SLG,10,1.013722,-33.0205,1.06572,-151.066,1.039083,90.3703,906.1851,-43.0349,235.3653,-153.3285,263.1736,82.9775
182153,SLG,20,1.027222,-32.0521,1.054405,-150.7938,1.037265,89.8707,623.276,-43.7754,242.8037,-167.2779,277.6209,71.3981
182153,SLG,30,1.032115,-31.6777,1.051068,-150.7409,1.038079,89.6838,514.5928,-43.7187,242.6796,-167.2044,277.1802,71.4211
182153,SLG,40,1.034502,-31.476,1.049287,-150.7187,1.038609,89.5874,457.9337,-44.0473,242.8284,-167.1762,276.934,71.4409
182153,LL,0,0.897566,-33.1769,0.851537,-155.7716,1.103781,88.9772,3569.3495,-64.1005,3787.0815,148.1419,295.2705,83.8269
182153,LL,10,1.012707,-31.8352,1.033616,-153.2903,1.05894,89.9279,881.6704,-39.4929,924.2132,-161.9614,260.5368,83.1845
182153,LL,20,1.026525,-31.4728,1.042051,-152.1269,1.051221,89.6918,607.9841,-37.5898,598.327,-157.0734,260.8363,83.3635
182153,LL,30,1.029741,-31.2669,1.041671,-151.6241,1.045781,89.606,510.206,-43.1001,485.61,-162.0878,275.4158,71.3259
182153,LL,40,1.032507,-31.168,1.042394,-151.3947,1.044483,89.5368,455.4513,-43.6869,425.7863,-162.3501,275.5682,71.3774
182153,3LG,0,0.885369,-35.341,0.886548,-155.298,0.88582,84.7193,4089.4064,-77.4162,4071.702,162.5368,4080.52,42.5725
182153,3LG,10,1.029883,-32.329,1.032487,-152.2133,1.029776,87.7766,933.8154,-40.0178,901.0975,-158.8934,928.6434,80.1951
182153,3LG,20,1.034805,-31.61,1.037265,-151.4834,1.034513,88.4942,628.3914,-42.4701,593.6993,-161.135,623.4429,77.7623
182153,3LG,30,1.037054,-31.359,1.039458,-151.2284,1.036689,88.7446,516.3015,-42.9965,481.1054,-161.4943,511.5244,77.2489
182153,3LG,40,1.038149,-31.2279,1.04052,-151.0952,1.037744,88.8752,458.6263,-43.5975,423.134,-162.0065,453.9602,76.6539
182158,SLG,0,0.867441,-32.9455,1.085969,-154.2485,1.083606,92.7459,2522.1647,-81.6835,262.5237,-153.0586,256.5549,86.1993
182158,SLG,10,1.01377,-32.9625,1.065298,-151.0727,1.039394,90.3531,894.8523,-43.4797,235.4355,-153.3395,263.2041,83.0029
182158,SLG,20,1.027177,-32.0351,1.054287,-150.7972,1.037376,89.8668,620.4094,-44.0326,242.8512,-167.2804,277.6259,71.4023
182158,SLG,30,1.032085,-31.6696,1.051013,-150.7427,1.038134,89.6821,513.3196,-43.8776,242.7143,-167.2071,277.1876,71.4226
182158,SLG,40,1.034481,-31.4713,1.049256,-150.7199,1.038642,89.5865,457.2233,-44.1557,242.8517,-167.1784,276.9412,71.4414
182158,LL,0,0.9108,-33.0178,0.868251,-155.4845,1.099068,89.0213,3279.5967,-63.1635,3487.7428,149.4422,293.9461,83.6034
182158,LL,10,1.013318,-31.7981,1.033097,-153.2403,1.058776,89.9002,870.1715,-39.686,915.0264,-162.4634,260.7631,83.1781
182158,LL,20,1.026686,-31.4588,1.041833,-152.1143,1.051208,89.6824,604.3982,-37.7142,596.0834,-157.3318,260.928,83.3576
182158,LL,30,1.029807,-31.2598,1.041559,-151.6188,1.045784,89.6016,508.6072,-43.2036,484.8258,-162.2536,275.4563,71.323
182158,LL,40,1.032543,-31.1637,1.042327,-151.3918,1.044487,89.5342,454.5293,-43.7609,425.3734,-162.4625,275.5963,71.3748
182158,3LG,0,0.899931,-35.0523,0.901294,-154.9983,0.900343,85.0161,3760.3161,-76.2575,3739.9677,163.6896,3751.1817,43.7316
182158,3LG,10,1.029867,-32.3031,1.032454,-152.1868,1.029744,87.8021,924.6896,-40.3197,891.8414,-159.2051,919.5873,79.8909
182158,3LG,20,1.034784,-31.6027,1.037238,-151.4759,1.034487,88.5013,626.0634,-42.6398,591.3318,-161.3141,621.1397,77.5919
182158,3LG,30,1.037041,-31.3556,1.039442,-151.2249,1.036674,88.7479,515.2576,-43.1012,480.0407,-161.6061,510.4922,77.1437
182158,3LG,40,1.03814,-31.2259,1.04051,-151.0932,1.037734,88.8772,458.0395,-43.6695,422.5339,-162.084,453.3801,76.5816
182162,SLG,0,0.880342,-32.8472,1.083336,-153.9866,1.080118,92.5151,2356.6913,-80.953,260.6369,-153.2725,257.7168,86.0374
182162,SLG,10,1.013804,-32.9082,1.064907,-151.0791,1.03969,90.3372,884.3521,-43.9138,235.4747,-153.3422,263.2089,83.0312
182162,SLG,20,1.029092,-32.069,1.056936,-150.8558,1.04005,89.8413,611.1283,-39.3447,233.0071,-153.2041,263.4661,83.0915
182162,SLG,30,1.032052,-31.6621,1.050962,-150.7445,1.038188,89.6806,512.1488,-44.032,242.7358,-167.2077,277.1843,71.4252
182162,SLG,40,1.034459,-31.4669,1.049227,-150.721,1.038674,89.5857,456.576,-44.2606,242.8669,-167.1791,276.9403,71.4428
182162,LL,0,0.921326,-32.874,0.88177,-155.1931,1.095065,89.0516,3046.1492,-62.5034,3241.3421,150.3667,292.7404,83.3872
182162,LL,10,1.013891,-31.7641,1.032601,-153.1934,1.058624,89.8743,859.6396,-39.8649,906.6018,-162.9552,260.9304,83.1826
182162,LL,20,1.02684,-31.4456,1.04162,-152.1025,1.051198,89.6734,601.047,-37.8297,594.0523,-157.5856,260.9941,83.3575
182162,LL,30,1.029871,-31.253,1.041449,-151.6139,1.045788,89.5973,507.1086,-43.3,484.1443,-162.4146,275.4789,71.3229
182162,LL,40,1.032577,-31.1596,1.04226,-151.3891,1.044492,89.5317,453.6656,-43.8296,425.0245,-162.5709,275.6109,71.3744
182162,3LG,0,0.911394,-34.7813,0.912911,-154.7176,0.911763,85.2939,3493.3545,-75.4443,3470.7706,164.4957,3484.0792,44.5441
182162,3LG,10,1.029845,-32.2793,1.032418,-152.1624,1.029708,87.8254,916.3997,-40.6099,883.4302,-159.5054,911.3647,79.5984
182162,3LG,20,1.034762,-31.596,1.03721,-151.4691,1.034461,88.5079,623.9503,-42.8006,589.1836,-161.4841,619.0517,77.4305
182162,3LG,30,1.037028,-31.3524,1.039427,-151.2217,1.036659,88.751,514.3135,-43.1993,479.0786,-161.7111,509.5603,77.0453
182162,3LG,40,1.038132,-31.2241,1.0405,-151.0914,1.037725,88.8789,457.5109,-43.7361,421.9943,-162.1559,452.8586,76.5148
